Circuit: * C:\Users\corwin\Google Drive\_Work Related\SARL\PCB Design\ShuttleBoxBehavior\Shock.asc

Direct Newton iteration failed to find .op point.  (Use ".option noopiter" to skip.)
Starting Gmin stepping
Gmin = 10
Gmin = 1.07374
Gmin = 0.115292
Gmin = 0.0123794
Gmin = 0.00132923
Gmin = 0.000142725
Gmin = 1.5325e-005
Gmin = 1.6455e-006
Gmin = 1.76685e-007
Gmin = 1.89714e-008
Gmin = 2.03704e-009
Gmin = 2.18725e-010
Gmin = 2.34854e-011
Gmin = 2.52173e-012
Gmin = 2.70769e-013
Gmin = 0
Gmin stepping succeeded in finding the operating point.

Direct Newton iteration for .op point succeeded.

Date: Wed Mar 12 13:03:31 2014
Total elapsed time: 0.053 seconds.

tnom = 27
temp = 27
method = trap
totiter = 790
traniter = 0
tranpoints = 0
accept = 0
rejected = 0
matrix size = 14
fillins = 3
solver = Normal
Matrix Compiler1: 832 bytes object code size  0.7/0.4/[0.2]
Matrix Compiler2: 1.33 KB object code size  0.3/0.3/[0.2]


